FoamFile {
    version 2.0;
    format ascii;
    class dictionary;
    object regionProperties;
}
regions (fluid (region2 region1) solid (region3));
